Version 4
SHEET 1 880 756
WIRE 64 -64 16 -64
WIRE 176 -64 144 -64
WIRE 256 -64 176 -64
WIRE 384 -64 336 -64
WIRE 16 -48 16 -64
WIRE 176 144 176 -64
WIRE 240 144 176 144
WIRE 384 160 384 -64
WIRE 384 160 304 160
WIRE 480 160 384 160
WIRE -304 176 -448 176
WIRE -128 176 -240 176
WIRE -48 176 -128 176
WIRE 80 176 -48 176
WIRE 240 176 160 176
WIRE 384 272 384 160
WIRE -304 352 -448 352
WIRE -128 352 -128 176
WIRE -128 352 -240 352
WIRE 384 368 384 352
FLAG 16 -48 0
FLAG -464 736 0
FLAG -272 736 0
FLAG 384 368 0
FLAG 480 160 Vo
IOPIN 480 160 Out
FLAG -464 656 Vx
IOPIN -464 656 In
FLAG -272 656 Vy
IOPIN -272 656 In
FLAG -448 176 Vx
IOPIN -448 176 In
FLAG -448 352 Vy
IOPIN -448 352 In
FLAG -80 736 0
FLAG -80 656 Vcc
FLAG 272 128 Vcc
FLAG 112 736 0
FLAG 112 656 -Vcc
FLAG 272 192 0
FLAG -48 256 0
SYMBOL OpAmps\\UniversalOpamp 272 160 R0
SYMATTR InstName U1
SYMBOL voltage -464 640 R0
WINDOW 123 0 0 Left 0
WINDOW 39 0 0 Left 0
SYMATTR InstName V2
SYMATTR Value SINE(0 1 2)
SYMBOL voltage -272 640 R0
WINDOW 123 0 0 Left 0
WINDOW 39 0 0 Left 0
SYMATTR InstName V3
SYMATTR Value 0.5V
SYMBOL res 176 160 R90
WINDOW 0 0 56 VBottom 2
WINDOW 3 32 56 VTop 2
SYMATTR InstName R1
SYMATTR Value 10k
SYMBOL res 352 -80 R90
WINDOW 0 0 56 VBottom 2
WINDOW 3 32 56 VTop 2
SYMATTR InstName R2
SYMATTR Value 0.001k
SYMBOL res 160 -80 R90
WINDOW 0 0 56 VBottom 2
WINDOW 3 32 56 VTop 2
SYMATTR InstName R3
SYMATTR Value 10k
SYMBOL diode -304 192 R270
WINDOW 0 32 32 VTop 2
WINDOW 3 0 32 VBottom 2
SYMATTR InstName D1
SYMATTR Value 1N4148
SYMBOL diode -304 368 R270
WINDOW 0 32 32 VTop 2
WINDOW 3 0 32 VBottom 2
SYMATTR InstName D2
SYMATTR Value 1N4148
SYMBOL res -32 272 R180
WINDOW 0 36 76 Left 2
WINDOW 3 36 40 Left 2
SYMATTR InstName R4
SYMATTR Value 10k
SYMBOL res 368 256 R0
SYMATTR InstName R5
SYMATTR Value 10k
SYMBOL voltage -80 640 R0
WINDOW 123 0 0 Left 0
WINDOW 39 0 0 Left 0
SYMATTR InstName V1
SYMATTR Value 10V
SYMBOL voltage 112 640 R0
WINDOW 123 0 0 Left 0
WINDOW 39 0 0 Left 0
SYMATTR InstName V4
SYMATTR Value -10V
TEXT -688 560 Right 2 !.tran 10
