Version 4
SHEET 1 880 680
WIRE -128 -128 -208 -128
WIRE -208 -80 -208 -128
WIRE 64 -64 16 -64
WIRE 176 -64 144 -64
WIRE 256 -64 176 -64
WIRE 384 -64 336 -64
WIRE 16 -48 16 -64
WIRE 320 16 272 16
WIRE -128 32 -128 -128
WIRE 272 32 272 16
WIRE 320 32 320 16
WIRE 272 128 272 112
WIRE 176 144 176 -64
WIRE 240 144 176 144
WIRE 384 160 384 -64
WIRE 384 160 304 160
WIRE 480 160 384 160
WIRE -448 176 -544 176
WIRE -304 176 -448 176
WIRE -128 176 -128 112
WIRE -128 176 -240 176
WIRE 80 176 -128 176
WIRE 240 176 160 176
WIRE 384 176 384 160
WIRE 272 224 272 192
WIRE 384 240 384 224
WIRE 384 272 384 240
WIRE -464 352 -544 352
WIRE -304 352 -464 352
WIRE -128 352 -128 176
WIRE -128 352 -240 352
WIRE 384 352 384 336
WIRE 384 368 384 352
FLAG -208 0 0
FLAG 320 32 0
FLAG 16 -48 0
FLAG -448 96 0
FLAG -464 272 0
FLAG 384 368 0
FLAG 480 160 Vo
IOPIN 480 160 Out
FLAG 272 224 0
FLAG -544 176 Vx
IOPIN -544 176 In
FLAG -544 352 Vy
IOPIN -544 352 In
SYMBOL OpAmps\\UniversalOpamp 272 160 R0
SYMATTR InstName U1
SYMBOL voltage -208 -96 R0
WINDOW 123 0 0 Left 0
WINDOW 39 0 0 Left 0
SYMATTR InstName V1
SYMATTR Value 30V
SYMBOL voltage -448 192 R180
WINDOW 123 0 0 Left 0
WINDOW 39 0 0 Left 0
SYMATTR InstName V2
SYMATTR Value 6V
SYMBOL voltage -464 368 R180
WINDOW 123 0 0 Left 0
WINDOW 39 0 0 Left 0
SYMATTR InstName V3
SYMATTR Value 5V
SYMBOL voltage 272 128 R180
WINDOW 123 0 0 Left 0
WINDOW 39 0 0 Left 0
SYMATTR InstName V4
SYMATTR Value 10V
SYMBOL res 176 160 R90
WINDOW 0 0 56 VBottom 2
WINDOW 3 32 56 VTop 2
SYMATTR InstName R1
SYMATTR Value 10k
SYMBOL res 352 -80 R90
WINDOW 0 0 56 VBottom 2
WINDOW 3 32 56 VTop 2
SYMATTR InstName R2
SYMATTR Value 0.001k
SYMBOL res 160 -80 R90
WINDOW 0 0 56 VBottom 2
WINDOW 3 32 56 VTop 2
SYMATTR InstName R3
SYMATTR Value 10k
SYMBOL diode -240 160 R90
WINDOW 0 0 32 VBottom 2
WINDOW 3 32 32 VTop 2
SYMATTR InstName D1
SYMATTR Value 1N4148
SYMBOL diode -240 336 R90
WINDOW 0 0 32 VBottom 2
WINDOW 3 32 32 VTop 2
SYMATTR InstName D2
SYMATTR Value 1N4148
SYMBOL res -144 16 R0
SYMATTR InstName R4
SYMATTR Value 10k
SYMBOL diode 368 176 R0
SYMATTR InstName D3
SYMATTR Value 1N4148
SYMBOL res 368 256 R0
SYMATTR InstName R5
SYMATTR Value 10k
TEXT -688 560 Right 2 !.tran 1
